*EXP.DETAILS: VEPN2189 RAINFED MAIZE

*GENERAL
@PEOPLE
BOCINSKY,R.K.
@ADDRESS
WSU, PULLMAN
@SITE
VEPN2189


*TREATMENTS                        -------------FACTOR LEVELS------------
@N R O C TNAME.................... CU FL SA IC MP MI MF MR MC MT ME MH SM
 1 1 0 0 RAINFED                    1 10  0  1  1  0  0  0  0  0  0  0  1
 2 1 0 0 RAINFED                    2 10  0  1  1  0  0  0  0  0  0  0  1
 3 1 0 0 RAINFED                    3 10  0  1  1  0  0  0  0  0  0  0  1
 4 1 0 0 RAINFED                    4 10  0  1  1  0  0  0  0  0  0  0  1
 5 1 0 0 RAINFED                    5 10  0  1  1  0  0  0  0  0  0  0  1
 6 1 0 0 RAINFED                    6 10  0  1  1  0  0  0  0  0  0  0  1
 7 1 0 0 RAINFED                    1  2  0  1  1  0  0  0  0  0  0  0  1
 8 1 0 0 RAINFED                    2  2  0  1  1  0  0  0  0  0  0  0  1
 9 1 0 0 RAINFED                    3  2  0  1  1  0  0  0  0  0  0  0  1
10 1 0 0 RAINFED                    4  2  0  1  1  0  0  0  0  0  0  0  1
11 1 0 0 RAINFED                    5  2  0  1  1  0  0  0  0  0  0  0  1
12 1 0 0 RAINFED                    6  2  0  1  1  0  0  0  0  0  0  0  1
13 1 0 0 RAINFED                    1  1  0  1  1  0  0  0  0  0  0  0  1
14 1 0 0 RAINFED                    2  1  0  1  1  0  0  0  0  0  0  0  1
15 1 0 0 RAINFED                    3  1  0  1  1  0  0  0  0  0  0  0  1
16 1 0 0 RAINFED                    4  1  0  1  1  0  0  0  0  0  0  0  1
17 1 0 0 RAINFED                    5  1  0  1  1  0  0  0  0  0  0  0  1
18 1 0 0 RAINFED                    6  1  0  1  1  0  0  0  0  0  0  0  1
19 1 0 0 RAINFED                    1  3  0  1  1  0  0  0  0  0  0  0  1
20 1 0 0 RAINFED                    2  3  0  1  1  0  0  0  0  0  0  0  1
21 1 0 0 RAINFED                    3  3  0  1  1  0  0  0  0  0  0  0  1
22 1 0 0 RAINFED                    4  3  0  1  1  0  0  0  0  0  0  0  1
23 1 0 0 RAINFED                    5  3  0  1  1  0  0  0  0  0  0  0  1
24 1 0 0 RAINFED                    6  3  0  1  1  0  0  0  0  0  0  0  1
25 1 0 0 RAINFED                    1  4  0  1  1  0  0  0  0  0  0  0  1
26 1 0 0 RAINFED                    2  4  0  1  1  0  0  0  0  0  0  0  1
27 1 0 0 RAINFED                    3  4  0  1  1  0  0  0  0  0  0  0  1
28 1 0 0 RAINFED                    4  4  0  1  1  0  0  0  0  0  0  0  1
29 1 0 0 RAINFED                    5  4  0  1  1  0  0  0  0  0  0  0  1
30 1 0 0 RAINFED                    6  4  0  1  1  0  0  0  0  0  0  0  1
31 1 0 0 RAINFED                    1  7  0  1  1  0  0  0  0  0  0  0  1
32 1 0 0 RAINFED                    2  7  0  1  1  0  0  0  0  0  0  0  1
33 1 0 0 RAINFED                    3  7  0  1  1  0  0  0  0  0  0  0  1
34 1 0 0 RAINFED                    4  7  0  1  1  0  0  0  0  0  0  0  1
35 1 0 0 RAINFED                    5  7  0  1  1  0  0  0  0  0  0  0  1
36 1 0 0 RAINFED                    6  7  0  1  1  0  0  0  0  0  0  0  1
37 1 0 0 RAINFED                    1  6  0  1  1  0  0  0  0  0  0  0  1
38 1 0 0 RAINFED                    2  6  0  1  1  0  0  0  0  0  0  0  1
39 1 0 0 RAINFED                    3  6  0  1  1  0  0  0  0  0  0  0  1
40 1 0 0 RAINFED                    4  6  0  1  1  0  0  0  0  0  0  0  1
41 1 0 0 RAINFED                    5  6  0  1  1  0  0  0  0  0  0  0  1
42 1 0 0 RAINFED                    6  6  0  1  1  0  0  0  0  0  0  0  1
43 1 0 0 RAINFED                    1  8  0  1  1  0  0  0  0  0  0  0  1
44 1 0 0 RAINFED                    2  8  0  1  1  0  0  0  0  0  0  0  1
45 1 0 0 RAINFED                    3  8  0  1  1  0  0  0  0  0  0  0  1
46 1 0 0 RAINFED                    4  8  0  1  1  0  0  0  0  0  0  0  1
47 1 0 0 RAINFED                    5  8  0  1  1  0  0  0  0  0  0  0  1
48 1 0 0 RAINFED                    6  8  0  1  1  0  0  0  0  0  0  0  1
49 1 0 0 RAINFED                    1  9  0  1  1  0  0  0  0  0  0  0  1
50 1 0 0 RAINFED                    2  9  0  1  1  0  0  0  0  0  0  0  1
51 1 0 0 RAINFED                    3  9  0  1  1  0  0  0  0  0  0  0  1
52 1 0 0 RAINFED                    4  9  0  1  1  0  0  0  0  0  0  0  1
53 1 0 0 RAINFED                    5  9  0  1  1  0  0  0  0  0  0  0  1
54 1 0 0 RAINFED                    6  9  0  1  1  0  0  0  0  0  0  0  1
55 1 0 0 RAINFED                    1  5  0  1  1  0  0  0  0  0  0  0  1
56 1 0 0 RAINFED                    2  5  0  1  1  0  0  0  0  0  0  0  1
57 1 0 0 RAINFED                    3  5  0  1  1  0  0  0  0  0  0  0  1
58 1 0 0 RAINFED                    4  5  0  1  1  0  0  0  0  0  0  0  1
59 1 0 0 RAINFED                    5  5  0  1  1  0  0  0  0  0  0  0  1
60 1 0 0 RAINFED                    6  5  0  1  1  0  0  0  0  0  0  0  1


*CULTIVARS
@C CR INGENO CNAME
 1 MZ LWPEUB Werth Pueblo
 2 MZ LWNORT Werth Northern
 3 MZ LWSOUT Werth Southern
 4 MZ LWPAPA Werth Papago
 5 MZ LWCORN Werth Cornbelt
 6 MZ GF0001 Base Garst808-wh403


*FIELDS
@L ID_FIELD WSTA....  FLSA  FLOB  FLDT  FLDD  FLDS  FLST SLTX  SLDP  ID_SOIL    FLNAME
 1 10641414 VEPN2189   -99     0 DR000     0     0 00000 -99    -99  0010641414 RAINFED
 2 10641225 VEPN2189   -99     0 DR000     0     0 00000 -99    -99  0010641225 RAINFED
 3 10641224 VEPN2189   -99     0 DR000     0     0 00000 -99    -99  0010641224 RAINFED
 4 10641235 VEPN2189   -99     0 DR000     0     0 00000 -99    -99  0010641235 RAINFED
 5 10641236 VEPN2189   -99     0 DR000     0     0 00000 -99    -99  0010641236 RAINFED
 6 10641318 VEPN2189   -99     0 DR000     0     0 00000 -99    -99  0010641318 RAINFED
 7 10641300 VEPN2189   -99     0 DR000     0     0 00000 -99    -99  0010641300 RAINFED
 8 10641319 VEPN2189   -99     0 DR000     0     0 00000 -99    -99  0010641319 RAINFED
 9 10641402 VEPN2189   -99     0 DR000     0     0 00000 -99    -99  0010641402 RAINFED
10 10641251 VEPN2189   -99     0 DR000     0     0 00000 -99    -99  0010641251 RAINFED


*INITIAL CONDITIONS
@C   PCR ICDAT  ICRT  ICND  ICRN  ICRE  ICWD ICRES ICREN ICREP ICRIP ICRID ICNAME
 1    MZ 81001   100     0     1     1   -99  1000    .8     0   100    15 -99
@C  ICBL  SH2O  SNH4  SNO3
 1     5    .3   -99   -99
 1    15    .3   -99   -99
 1    30    .3   -99   -99
 1    60    .3   -99   -99
 1    90    .3   -99   -99
 1   120    .3   -99   -99


*PLANTING DETAILS
@P PDATE EDATE  PPOP  PPOE  PLME  PLDS  PLRS  PLRD  PLDP  PLWT  PAGE  PENV  PLPH  SPRL                        PLNAME
 1 81136   -99   0.5   0.5     S     H   100   -99    15   -99   -99   -99     4     0                        -99


*SIMULATION CONTROLS
@N GENERAL     NYERS NREPS START SDATE RSEED SNAME.................... SMODEL
 1 GE             33     1     S 81001  0001 VEPN2189                  MZCER
@N OPTIONS     WATER NITRO SYMBI PHOSP POTAS DISES  CHEM  TILL   CO2
 1 OP              Y     N     N     N     N     N     N     N     M
@N METHODS     WTHER INCON LIGHT EVAPO INFIL PHOTO HYDRO NSWIT MESOM MESEV MESOL
 1 ME              M     M     E     R     S     R     R     1     G     S     2
@N MANAGEMENT  PLANT IRRIG FERTI RESID HARVS
 1 MA              R     N     N     N     M
@N OUTPUTS     FNAME OVVEW SUMRY FROPT GROUT CAOUT WAOUT NIOUT MIOUT DIOUT VBOSE CHOUT OPOUT
 1 OU              N     N     Y     1     N     N     N     N     N     N     N     N     N


@  AUTOMATIC MANAGEMENT
@N PLANTING    PFRST PLAST PH2OL PH2OU PH2OD PSTMX PSTMN
 1 PL          81136 81167     0   100    30    40    10
@N IRRIGATION  IMDEP ITHRL ITHRU IROFF IMETH IRAMT IREFF
 1 IR             30    50   100 GS000 IR001    10     1
@N RESIDUES    RIPCN RTIME RIDEP
 1 RE            100     1    20
@N HARVEST     HFRST HLAST HPCNP HPCNR
 1 HA              0 82135   100     0
