*MODEL INPUT FILE            B     6     1     3   999     0
*FILES              
MODEL          SGCER046
FILEX          ITHY8001.SGX C:\DSSAT46\Sorghum\                                                             
FILEA          ITHY8001.SGA C:\DSSAT46\Sorghum\                                                             
FILET          ITHY8001.SGT C:\DSSAT46\Sorghum\                                                             
SPECIES        SGCER046.SPE C:\DSSAT46\GENOTYPE\                                                            
ECOTYPE        SGCER046.ECO C:\DSSAT46\GENOTYPE\                                                            
CULTIVAR       SGCER046.CUL C:\DSSAT46\GENOTYPE\                                                            
PESTS          SGCER046.PST C:\DSSAT46\PEST\                                                                
SOILS          SOIL.SOL     C:\DSSAT46\SOIL\                                                                
WEATHER        ITHY8001.WTH C:\DSSAT46\Weather\                                                             
OUTPUT         OVERVIEW
*SIMULATION CONTROL 
                   1     1     S 1980165  2150 ICRISAT Alfisol N 1980 E 
                   Y     Y     N     N     N     N     N     N     M
                   M     M     E     R     S     C     R     1     P     S     2
                   R     N     R     N     M
                   N     Y     Y     1     Y     N     Y     Y     N     N     Y     N     N
!AUTOMATIC MANAGEM  
               1980162 1980176   40.  100.   30.   40.   10.
                 30.   50.  100. GS000 IR001  10.0 1.000
                 30.   50.   25. FE001 GS000
                100.     1   20.
                     0 1981168  100.    0.
*EXP.DETAILS        
  1ITHY8001 SG ICRISAT ALFISOL N 1980 EXPT 80-1                            
*TREATMENTS         
  3 1 0 0 80 kg Urea-N Split Applic
*CULTIVARS          
   SG IB0026 CSH-1           
*FIELDS             
   ITHY0001 ITHY8001   0.0    0. DR000    0. 100.0 00000 -99    172. IBSG910085
           0.00000         0.00000      0.00               1.0  100.   1.0   0.0 FH101   -99
*INITIAL CONDITIONS 
   SG    1980165   500     0  1.00  1.00   0.0  1300  0.50  0.00  100.   10.
      5. 0.060  2.50  1.80
     15. 0.060  2.50  1.80
     22. 0.060  2.50  1.80
     37. 0.195  3.00  4.50
     52. 0.195  3.00  4.50
     67. 0.210  3.50  5.00
     82. 0.210  3.50  5.00
    112. 0.200  2.00  2.00
    142. 0.200  1.00 0.700
    172. 0.200  1.00 0.600
*PLANTING DETAILS   
   1980169     -99  18.0  18.0     S     R   45.    0.   5.0  -99.  -99. -99.0 -99.0   0.0
*IRRIGATION         
   1.000    0.    0.  -99. GS000 IR001   0.0
*FERTILIZERS        
   1980185 FE005 AP002    5.   40.  -99.  -99.  -99.  -99.   -99
   1980198 FE005 AP002    5.   40.  -99.  -99.  -99.  -99.   -99
*RESIDUES           
*CHEMICALS          
*TILLAGE            
*ENVIRONMENT        
*HARVEST            
*SOIL               
 IBSG910085  IBSNAT      -99    172. Patencheru                                        
 Patancheru  India        -0.009  -0.099 ALFISOL Udic Rhodustalf, Patencheru Series        
 -99    0.13   6.0  0.30   80.  1.00  1.00 IB001 IB001 IB001 -99  
    5.       0.080 0.220 0.310 1.000  -99.  1.61 0.850 -99.0 -99.0 -99.0  -9.0  7.00-99.00-99.00-99.00
   15.       0.085 0.220 0.310 0.950  -99.  1.61 0.700 -99.0 -99.0 -99.0  -9.0  7.00-99.00-99.00-99.00
   22.       0.090 0.220 0.310 0.900  -99.  1.61 0.550 -99.0 -99.0 -99.0  -9.0  7.00-99.00-99.00-99.00
   37.       0.125 0.245 0.315 0.700  -99.  1.62 0.510 -99.0 -99.0 -99.0  -9.0  7.00-99.00-99.00-99.00
   52.       0.125 0.245 0.315 0.700  -99.  1.62 0.510 -99.0 -99.0 -99.0  -9.0  7.00-99.00-99.00-99.00
   67.       0.150 0.230 0.290 0.500  -99.  1.64 0.630 -99.0 -99.0 -99.0  -9.0  7.00-99.00-99.00-99.00
   82.       0.150 0.230 0.290 0.500  -99.  1.64 0.630 -99.0 -99.0 -99.0  -9.0  7.00-99.00-99.00-99.00
  112.       0.160 0.240 0.310 0.100  -99.  1.64 0.100 -99.0 -99.0 -99.0  -9.0  7.00-99.00-99.00-99.00
  142.       0.173 0.240 0.310 0.050  -99.  1.64 0.100 -99.0 -99.0 -99.0  -9.0  7.00-99.00-99.00-99.00
  172.       0.193 0.250 0.320 0.030  -99.  1.64 0.100 -99.0 -99.0 -99.0  -9.0  7.00-99.00-99.00-99.00
                    
    5.-99.00 -99.0 -99.0 -99.0 -99.0 -99.0 -99.0 -99.0 -99.0 -99.0-99.00 -99.0 -99.0 -99.0 -99.0 -99.0  -99.
   15.-99.00 -99.0 -99.0 -99.0 -99.0 -99.0 -99.0 -99.0 -99.0 -99.0-99.00 -99.0 -99.0 -99.0 -99.0 -99.0  -99.
   22.-99.00 -99.0 -99.0 -99.0 -99.0 -99.0 -99.0 -99.0 -99.0 -99.0-99.00 -99.0 -99.0 -99.0 -99.0 -99.0  -99.
   37.-99.00 -99.0 -99.0 -99.0 -99.0 -99.0 -99.0 -99.0 -99.0 -99.0-99.00 -99.0 -99.0 -99.0 -99.0 -99.0  -99.
   52.-99.00 -99.0 -99.0 -99.0 -99.0 -99.0 -99.0 -99.0 -99.0 -99.0-99.00 -99.0 -99.0 -99.0 -99.0 -99.0  -99.
   67.-99.00 -99.0 -99.0 -99.0 -99.0 -99.0 -99.0 -99.0 -99.0 -99.0-99.00 -99.0 -99.0 -99.0 -99.0 -99.0  -99.
   82.-99.00 -99.0 -99.0 -99.0 -99.0 -99.0 -99.0 -99.0 -99.0 -99.0-99.00 -99.0 -99.0 -99.0 -99.0 -99.0  -99.
  112.-99.00 -99.0 -99.0 -99.0 -99.0 -99.0 -99.0 -99.0 -99.0 -99.0-99.00 -99.0 -99.0 -99.0 -99.0 -99.0  -99.
  142.-99.00 -99.0 -99.0 -99.0 -99.0 -99.0 -99.0 -99.0 -99.0 -99.0-99.00 -99.0 -99.0 -99.0 -99.0 -99.0  -99.
  172.-99.00 -99.0 -99.0 -99.0 -99.0 -99.0 -99.0 -99.0 -99.0 -99.0-99.00 -99.0 -99.0 -99.0 -99.0 -99.0  -99.
                    
    5.-99.00-99.00-99.00-99.00
   15.-99.00-99.00-99.00-99.00
   22.-99.00-99.00-99.00-99.00
   37.-99.00-99.00-99.00-99.00
   52.-99.00-99.00-99.00-99.00
   67.-99.00-99.00-99.00-99.00
   82.-99.00-99.00-99.00-99.00
  112.-99.00-99.00-99.00-99.00
  142.-99.00-99.00-99.00-99.00
  172.-99.00-99.00-99.00-99.00
*CULTIVAR           
IB0026 CSH-1            IB0001  410.0102.00  13.6  40.0 617.5 152.5 81.50 640.0  49.0   3.0   6.5
